
---------- Begin Simulation Statistics ----------
simSeconds                                   1.081472                       # Number of seconds simulated (Second)
simTicks                                 1081471789323                       # Number of ticks simulated (Tick)
finalTick                                32761009348516                       # Number of ticks from beginning of simulation (restored from checkpoints and never reset) (Tick)
simFreq                                  1000000000000                       # The number of ticks per simulated second ((Tick/Second))
hostSeconds                                   3898.11                       # Real time elapsed on the host (Second)
hostTickRate                                277435034                       # The number of ticks simulated per host second (ticks/s) ((Tick/Second))
hostMemory                                    6923392                       # Number of bytes of host memory used (Byte)
simInsts                                   1006758408                       # Number of instructions simulated (Count)
simOps                                     1185362813                       # Number of ops (including micro ops) simulated (Count)
hostInstRate                                   258268                       # Simulator instruction rate (inst/s) ((Count/Second))
hostOpRate                                     304087                       # Simulator op (including micro ops) rate (op/s) ((Count/Second))
board.cache_hierarchy.ruby_system.delayHistogram::bucket_size            2                       # delay histogram for all message (Unspecified)
board.cache_hierarchy.ruby_system.delayHistogram::max_bucket           19                       # delay histogram for all message (Unspecified)
board.cache_hierarchy.ruby_system.delayHistogram::samples     82231978                       # delay histogram for all message (Unspecified)
board.cache_hierarchy.ruby_system.delayHistogram::mean     0.308458                       # delay histogram for all message (Unspecified)
board.cache_hierarchy.ruby_system.delayHistogram::stdev     1.540975                       # delay histogram for all message (Unspecified)
board.cache_hierarchy.ruby_system.delayHistogram |    79045981     96.13%     96.13% |       21126      0.03%     96.15% |       10950      0.01%     96.16% |        7062      0.01%     96.17% |     3129328      3.81%     99.98% |       14348      0.02%    100.00% |        1008      0.00%    100.00% |         216      0.00%    100.00% |         239      0.00%    100.00% |        1720      0.00%    100.00% # delay histogram for all message (Unspecified)
board.cache_hierarchy.ruby_system.delayHistogram::total     82231978                       # delay histogram for all message (Unspecified)
board.cache_hierarchy.ruby_system.m_outstandReqHistSeqr::bucket_size            1                       (Unspecified)
board.cache_hierarchy.ruby_system.m_outstandReqHistSeqr::max_bucket            9                       (Unspecified)
board.cache_hierarchy.ruby_system.m_outstandReqHistSeqr::samples   1476995679                       (Unspecified)
board.cache_hierarchy.ruby_system.m_outstandReqHistSeqr::mean     1.000000                       (Unspecified)
board.cache_hierarchy.ruby_system.m_outstandReqHistSeqr::gmean     1.000000                       (Unspecified)
board.cache_hierarchy.ruby_system.m_outstandReqHistSeqr::stdev     0.000173                       (Unspecified)
board.cache_hierarchy.ruby_system.m_outstandReqHistSeqr |           0      0.00%      0.00% |  1476995635    100.00%    100.00% |          44      0.00%    100.00% |           0      0.00%    100.00% |           0      0.00%    100.00% |           0      0.00%    100.00% |           0      0.00%    100.00% |           0      0.00%    100.00% |           0      0.00%    100.00% |           0      0.00%    100.00% (Unspecified)
board.cache_hierarchy.ruby_system.m_outstandReqHistSeqr::total   1476995679                       (Unspecified)
board.cache_hierarchy.ruby_system.m_latencyHistSeqr::bucket_size          256                       (Unspecified)
board.cache_hierarchy.ruby_system.m_latencyHistSeqr::max_bucket         2559                       (Unspecified)
board.cache_hierarchy.ruby_system.m_latencyHistSeqr::samples   1476995679                       (Unspecified)
board.cache_hierarchy.ruby_system.m_latencyHistSeqr::mean     1.222871                       (Unspecified)
board.cache_hierarchy.ruby_system.m_latencyHistSeqr::gmean     1.040132                       (Unspecified)
board.cache_hierarchy.ruby_system.m_latencyHistSeqr::stdev     3.367160                       (Unspecified)
board.cache_hierarchy.ruby_system.m_latencyHistSeqr |  1476987048    100.00%    100.00% |        4312      0.00%    100.00% |         457      0.00%    100.00% |         265      0.00%    100.00% |        3511      0.00%    100.00% |          61      0.00%    100.00% |          22      0.00%    100.00% |           3      0.00%    100.00% |           0      0.00%    100.00% |           0      0.00%    100.00% (Unspecified)
board.cache_hierarchy.ruby_system.m_latencyHistSeqr::total   1476995679                       (Unspecified)
board.cache_hierarchy.ruby_system.m_hitLatencyHistSeqr::bucket_size            1                       (Unspecified)
board.cache_hierarchy.ruby_system.m_hitLatencyHistSeqr::max_bucket            9                       (Unspecified)
board.cache_hierarchy.ruby_system.m_hitLatencyHistSeqr::samples   1454986534                       (Unspecified)
board.cache_hierarchy.ruby_system.m_hitLatencyHistSeqr::mean            1                       (Unspecified)
board.cache_hierarchy.ruby_system.m_hitLatencyHistSeqr::gmean            1                       (Unspecified)
board.cache_hierarchy.ruby_system.m_hitLatencyHistSeqr |           0      0.00%      0.00% |  1454986534    100.00%    100.00% |           0      0.00%    100.00% |           0      0.00%    100.00% |           0      0.00%    100.00% |           0      0.00%    100.00% |           0      0.00%    100.00% |           0      0.00%    100.00% |           0      0.00%    100.00% |           0      0.00%    100.00% (Unspecified)
board.cache_hierarchy.ruby_system.m_hitLatencyHistSeqr::total   1454986534                       (Unspecified)
board.cache_hierarchy.ruby_system.m_missLatencyHistSeqr::bucket_size          256                       (Unspecified)
board.cache_hierarchy.ruby_system.m_missLatencyHistSeqr::max_bucket         2559                       (Unspecified)
board.cache_hierarchy.ruby_system.m_missLatencyHistSeqr::samples     22009145                       (Unspecified)
board.cache_hierarchy.ruby_system.m_missLatencyHistSeqr::mean    15.956487                       (Unspecified)
board.cache_hierarchy.ruby_system.m_missLatencyHistSeqr::gmean    14.020526                       (Unspecified)
board.cache_hierarchy.ruby_system.m_missLatencyHistSeqr::stdev    23.248549                       (Unspecified)
board.cache_hierarchy.ruby_system.m_missLatencyHistSeqr |    22000514     99.96%     99.96% |        4312      0.02%     99.98% |         457      0.00%     99.98% |         265      0.00%     99.98% |        3511      0.02%    100.00% |          61      0.00%    100.00% |          22      0.00%    100.00% |           3      0.00%    100.00% |           0      0.00%    100.00% |           0      0.00%    100.00% (Unspecified)
board.cache_hierarchy.ruby_system.m_missLatencyHistSeqr::total     22009145                       (Unspecified)
board.cache_hierarchy.ruby_system.delayVCHist.vnet_0::bucket_size            2                       # delay histogram for vnet_0 (Unspecified)
board.cache_hierarchy.ruby_system.delayVCHist.vnet_0::max_bucket           19                       # delay histogram for vnet_0 (Unspecified)
board.cache_hierarchy.ruby_system.delayVCHist.vnet_0::samples     46969676                       # delay histogram for vnet_0 (Unspecified)
board.cache_hierarchy.ruby_system.delayVCHist.vnet_0::mean     0.539696                       # delay histogram for vnet_0 (Unspecified)
board.cache_hierarchy.ruby_system.delayVCHist.vnet_0::stdev     2.007703                       # delay histogram for vnet_0 (Unspecified)
board.cache_hierarchy.ruby_system.delayVCHist.vnet_0 |    43787061     93.22%     93.22% |       20805      0.04%     93.27% |        8838      0.02%     93.29% |        6595      0.01%     93.30% |     3128847      6.66%     99.96% |       14347      0.03%     99.99% |        1008      0.00%    100.00% |         216      0.00%    100.00% |         239      0.00%    100.00% |        1720      0.00%    100.00% # delay histogram for vnet_0 (Unspecified)
board.cache_hierarchy.ruby_system.delayVCHist.vnet_0::total     46969676                       # delay histogram for vnet_0 (Unspecified)
board.cache_hierarchy.ruby_system.delayVCHist.vnet_1::bucket_size            2                       # delay histogram for vnet_1 (Unspecified)
board.cache_hierarchy.ruby_system.delayVCHist.vnet_1::max_bucket           19                       # delay histogram for vnet_1 (Unspecified)
board.cache_hierarchy.ruby_system.delayVCHist.vnet_1::samples     35237769                       # delay histogram for vnet_1 (Unspecified)
board.cache_hierarchy.ruby_system.delayVCHist.vnet_1::mean     0.000446                       # delay histogram for vnet_1 (Unspecified)
board.cache_hierarchy.ruby_system.delayVCHist.vnet_1::stdev     0.048450                       # delay histogram for vnet_1 (Unspecified)
board.cache_hierarchy.ruby_system.delayVCHist.vnet_1 |    35234399     99.99%     99.99% |         309      0.00%     99.99% |        2112      0.01%    100.00% |         467      0.00%    100.00% |         481      0.00%    100.00% |           1      0.00%    100.00% |           0      0.00%    100.00% |           0      0.00%    100.00% |           0      0.00%    100.00% |           0      0.00%    100.00% # delay histogram for vnet_1 (Unspecified)
board.cache_hierarchy.ruby_system.delayVCHist.vnet_1::total     35237769                       # delay histogram for vnet_1 (Unspecified)
board.cache_hierarchy.ruby_system.delayVCHist.vnet_2::bucket_size            1                       # delay histogram for vnet_2 (Unspecified)
board.cache_hierarchy.ruby_system.delayVCHist.vnet_2::max_bucket            9                       # delay histogram for vnet_2 (Unspecified)
board.cache_hierarchy.ruby_system.delayVCHist.vnet_2::samples        24533                       # delay histogram for vnet_2 (Unspecified)
board.cache_hierarchy.ruby_system.delayVCHist.vnet_2::mean     0.000978                       # delay histogram for vnet_2 (Unspecified)
board.cache_hierarchy.ruby_system.delayVCHist.vnet_2::stdev     0.044223                       # delay histogram for vnet_2 (Unspecified)
board.cache_hierarchy.ruby_system.delayVCHist.vnet_2 |       24521     99.95%     99.95% |           0      0.00%     99.95% |          12      0.05%    100.00% |           0      0.00%    100.00% |           0      0.00%    100.00% |           0      0.00%    100.00% |           0      0.00%    100.00% |           0      0.00%    100.00% |           0      0.00%    100.00% |           0      0.00%    100.00% # delay histogram for vnet_2 (Unspecified)
board.cache_hierarchy.ruby_system.delayVCHist.vnet_2::total        24533                       # delay histogram for vnet_2 (Unspecified)
board.cache_hierarchy.ruby_system.Directory_Controller.Fetch |      183841     50.02%     50.02% |      183659     49.98%    100.00% (Unspecified)
board.cache_hierarchy.ruby_system.Directory_Controller.Fetch::total       367500                       (Unspecified)
board.cache_hierarchy.ruby_system.Directory_Controller.Data |        8141     50.39%     50.39% |        8016     49.61%    100.00% (Unspecified)
board.cache_hierarchy.ruby_system.Directory_Controller.Data::total        16157                       (Unspecified)
board.cache_hierarchy.ruby_system.Directory_Controller.Memory_Data |      184363     50.10%     50.10% |      183659     49.90%    100.00% (Unspecified)
board.cache_hierarchy.ruby_system.Directory_Controller.Memory_Data::total       368022                       (Unspecified)
board.cache_hierarchy.ruby_system.Directory_Controller.Memory_Ack |      186317     50.02%     50.02% |      186192     49.98%    100.00% (Unspecified)
board.cache_hierarchy.ruby_system.Directory_Controller.Memory_Ack::total       372509                       (Unspecified)
board.cache_hierarchy.ruby_system.Directory_Controller.DMA_READ |         696    100.00%    100.00% |           0      0.00%    100.00% (Unspecified)
board.cache_hierarchy.ruby_system.Directory_Controller.DMA_READ::total          696                       (Unspecified)
board.cache_hierarchy.ruby_system.Directory_Controller.DMA_WRITE |      178176     50.00%     50.00% |      178176     50.00%    100.00% (Unspecified)
board.cache_hierarchy.ruby_system.Directory_Controller.DMA_WRITE::total       356352                       (Unspecified)
board.cache_hierarchy.ruby_system.Directory_Controller.CleanReplacement |      175700     50.01%     50.01% |      175643     49.99%    100.00% (Unspecified)
board.cache_hierarchy.ruby_system.Directory_Controller.CleanReplacement::total       351343                       (Unspecified)
board.cache_hierarchy.ruby_system.Directory_Controller.I.Fetch |      183841     50.02%     50.02% |      183659     49.98%    100.00% (Unspecified)
board.cache_hierarchy.ruby_system.Directory_Controller.I.Fetch::total       367500                       (Unspecified)
board.cache_hierarchy.ruby_system.Directory_Controller.I.DMA_READ |         522    100.00%    100.00% |           0      0.00%    100.00% (Unspecified)
board.cache_hierarchy.ruby_system.Directory_Controller.I.DMA_READ::total          522                       (Unspecified)
board.cache_hierarchy.ruby_system.Directory_Controller.I.DMA_WRITE |      178176     50.00%     50.00% |      178176     50.00%    100.00% (Unspecified)
board.cache_hierarchy.ruby_system.Directory_Controller.I.DMA_WRITE::total       356352                       (Unspecified)
board.cache_hierarchy.ruby_system.Directory_Controller.ID.Memory_Data |         522    100.00%    100.00% |           0      0.00%    100.00% (Unspecified)
board.cache_hierarchy.ruby_system.Directory_Controller.ID.Memory_Data::total          522                       (Unspecified)
board.cache_hierarchy.ruby_system.Directory_Controller.ID_W.Memory_Ack |      178176     50.00%     50.00% |      178176     50.00%    100.00% (Unspecified)
board.cache_hierarchy.ruby_system.Directory_Controller.ID_W.Memory_Ack::total       356352                       (Unspecified)
board.cache_hierarchy.ruby_system.Directory_Controller.M.Data |        7967     49.85%     49.85% |        8016     50.15%    100.00% (Unspecified)
board.cache_hierarchy.ruby_system.Directory_Controller.M.Data::total        15983                       (Unspecified)
board.cache_hierarchy.ruby_system.Directory_Controller.M.DMA_READ |         174    100.00%    100.00% |           0      0.00%    100.00% (Unspecified)
board.cache_hierarchy.ruby_system.Directory_Controller.M.DMA_READ::total          174                       (Unspecified)
board.cache_hierarchy.ruby_system.Directory_Controller.M.CleanReplacement |      175700     50.01%     50.01% |      175643     49.99%    100.00% (Unspecified)
board.cache_hierarchy.ruby_system.Directory_Controller.M.CleanReplacement::total       351343                       (Unspecified)
board.cache_hierarchy.ruby_system.Directory_Controller.IM.Memory_Data |      183841     50.02%     50.02% |      183659     49.98%    100.00% (Unspecified)
board.cache_hierarchy.ruby_system.Directory_Controller.IM.Memory_Data::total       367500                       (Unspecified)
board.cache_hierarchy.ruby_system.Directory_Controller.MI.Memory_Ack |        7967     49.85%     49.85% |        8016     50.15%    100.00% (Unspecified)
board.cache_hierarchy.ruby_system.Directory_Controller.MI.Memory_Ack::total        15983                       (Unspecified)
board.cache_hierarchy.ruby_system.Directory_Controller.M_DRD.Data |         174    100.00%    100.00% |           0      0.00%    100.00% (Unspecified)
board.cache_hierarchy.ruby_system.Directory_Controller.M_DRD.Data::total          174                       (Unspecified)
board.cache_hierarchy.ruby_system.Directory_Controller.M_DRDI.Memory_Ack |         174    100.00%    100.00% |           0      0.00%    100.00% (Unspecified)
board.cache_hierarchy.ruby_system.Directory_Controller.M_DRDI.Memory_Ack::total          174                       (Unspecified)
board.cache_hierarchy.ruby_system.DMA_Controller.ReadRequest |         696    100.00%    100.00% |           0      0.00%    100.00% (Unspecified)
board.cache_hierarchy.ruby_system.DMA_Controller.ReadRequest::total          696                       (Unspecified)
board.cache_hierarchy.ruby_system.DMA_Controller.WriteRequest |      356352    100.00%    100.00% |           0      0.00%    100.00% (Unspecified)
board.cache_hierarchy.ruby_system.DMA_Controller.WriteRequest::total       356352                       (Unspecified)
board.cache_hierarchy.ruby_system.DMA_Controller.Data |         696    100.00%    100.00% |           0      0.00%    100.00% (Unspecified)
board.cache_hierarchy.ruby_system.DMA_Controller.Data::total          696                       (Unspecified)
board.cache_hierarchy.ruby_system.DMA_Controller.Ack |      356352    100.00%    100.00% |           0      0.00%    100.00% (Unspecified)
board.cache_hierarchy.ruby_system.DMA_Controller.Ack::total       356352                       (Unspecified)
board.cache_hierarchy.ruby_system.DMA_Controller.READY.ReadRequest |         696    100.00%    100.00% |           0      0.00%    100.00% (Unspecified)
board.cache_hierarchy.ruby_system.DMA_Controller.READY.ReadRequest::total          696                       (Unspecified)
board.cache_hierarchy.ruby_system.DMA_Controller.READY.WriteRequest |      356352    100.00%    100.00% |           0      0.00%    100.00% (Unspecified)
board.cache_hierarchy.ruby_system.DMA_Controller.READY.WriteRequest::total       356352                       (Unspecified)
board.cache_hierarchy.ruby_system.DMA_Controller.BUSY_RD.Data |         696    100.00%    100.00% |           0      0.00%    100.00% (Unspecified)
board.cache_hierarchy.ruby_system.DMA_Controller.BUSY_RD.Data::total          696                       (Unspecified)
board.cache_hierarchy.ruby_system.DMA_Controller.BUSY_WR.Ack |      356352    100.00%    100.00% |           0      0.00%    100.00% (Unspecified)
board.cache_hierarchy.ruby_system.DMA_Controller.BUSY_WR.Ack::total       356352                       (Unspecified)
board.cache_hierarchy.ruby_system.L1Cache_Controller.Load |    97540790     98.24%     98.24% |     1747400      1.76%    100.00% (Unspecified)
board.cache_hierarchy.ruby_system.L1Cache_Controller.Load::total     99288190                       (Unspecified)
board.cache_hierarchy.ruby_system.L1Cache_Controller.Ifetch |  1340170970     99.45%     99.45% |     7468823      0.55%    100.00% (Unspecified)
board.cache_hierarchy.ruby_system.L1Cache_Controller.Ifetch::total   1347639793                       (Unspecified)
board.cache_hierarchy.ruby_system.L1Cache_Controller.Store |    29024043     96.53%     96.53% |     1043654      3.47%    100.00% (Unspecified)
board.cache_hierarchy.ruby_system.L1Cache_Controller.Store::total     30067697                       (Unspecified)
board.cache_hierarchy.ruby_system.L1Cache_Controller.Inv |        3226     23.50%     23.50% |       10501     76.50%    100.00% (Unspecified)
board.cache_hierarchy.ruby_system.L1Cache_Controller.Inv::total        13727                       (Unspecified)
board.cache_hierarchy.ruby_system.L1Cache_Controller.L1_Replacement |    20692927     94.08%     94.08% |     1302216      5.92%    100.00% (Unspecified)
board.cache_hierarchy.ruby_system.L1Cache_Controller.L1_Replacement::total     21995143                       (Unspecified)
board.cache_hierarchy.ruby_system.L1Cache_Controller.Fwd_GETX |           0      0.00%      0.00% |        1085    100.00%    100.00% (Unspecified)
board.cache_hierarchy.ruby_system.L1Cache_Controller.Fwd_GETX::total         1085                       (Unspecified)
board.cache_hierarchy.ruby_system.L1Cache_Controller.Fwd_GETS |        9709     99.88%     99.88% |          12      0.12%    100.00% (Unspecified)
board.cache_hierarchy.ruby_system.L1Cache_Controller.Fwd_GETS::total         9721                       (Unspecified)
board.cache_hierarchy.ruby_system.L1Cache_Controller.Data |        5390    100.00%    100.00% |           0      0.00%    100.00% (Unspecified)
board.cache_hierarchy.ruby_system.L1Cache_Controller.Data::total         5390                       (Unspecified)
board.cache_hierarchy.ruby_system.L1Cache_Controller.Data_Exclusive |     8050432     94.50%     94.50% |      468784      5.50%    100.00% (Unspecified)
board.cache_hierarchy.ruby_system.L1Cache_Controller.Data_Exclusive::total      8519216                       (Unspecified)
board.cache_hierarchy.ruby_system.L1Cache_Controller.DataS_fromL1 |          12      0.12%      0.12% |        9709     99.88%    100.00% (Unspecified)
board.cache_hierarchy.ruby_system.L1Cache_Controller.DataS_fromL1::total         9721                       (Unspecified)
board.cache_hierarchy.ruby_system.L1Cache_Controller.Data_all_Acks |    12637093     93.81%     93.81% |      833394      6.19%    100.00% (Unspecified)
board.cache_hierarchy.ruby_system.L1Cache_Controller.Data_all_Acks::total     13470487                       (Unspecified)
board.cache_hierarchy.ruby_system.L1Cache_Controller.Ack |        4330     99.98%     99.98% |           1      0.02%    100.00% (Unspecified)
board.cache_hierarchy.ruby_system.L1Cache_Controller.Ack::total         4331                       (Unspecified)
board.cache_hierarchy.ruby_system.L1Cache_Controller.Ack_all |        9720     99.99%     99.99% |           1      0.01%    100.00% (Unspecified)
board.cache_hierarchy.ruby_system.L1Cache_Controller.Ack_all::total         9721                       (Unspecified)
board.cache_hierarchy.ruby_system.L1Cache_Controller.WB_Ack |    11856692     95.08%     95.08% |      613310      4.92%    100.00% (Unspecified)
board.cache_hierarchy.ruby_system.L1Cache_Controller.WB_Ack::total     12470002                       (Unspecified)
board.cache_hierarchy.ruby_system.L1Cache_Controller.NP.Load |     8299448     93.64%     93.64% |      563769      6.36%    100.00% (Unspecified)
board.cache_hierarchy.ruby_system.L1Cache_Controller.NP.Load::total      8863217                       (Unspecified)
board.cache_hierarchy.ruby_system.L1Cache_Controller.NP.Ifetch |     8581840     93.54%     93.54% |      592825      6.46%    100.00% (Unspecified)
board.cache_hierarchy.ruby_system.L1Cache_Controller.NP.Ifetch::total      9174665                       (Unspecified)
board.cache_hierarchy.ruby_system.L1Cache_Controller.NP.Store |     3811639     96.32%     96.32% |      145622      3.68%    100.00% (Unspecified)
board.cache_hierarchy.ruby_system.L1Cache_Controller.NP.Store::total      3957261                       (Unspecified)
board.cache_hierarchy.ruby_system.L1Cache_Controller.NP.Inv |        3225     62.74%     62.74% |        1915     37.26%    100.00% (Unspecified)
board.cache_hierarchy.ruby_system.L1Cache_Controller.NP.Inv::total         5140                       (Unspecified)
board.cache_hierarchy.ruby_system.L1Cache_Controller.I.Load |           0      0.00%      0.00% |        9671    100.00%    100.00% (Unspecified)
board.cache_hierarchy.ruby_system.L1Cache_Controller.I.Load::total         9671                       (Unspecified)
board.cache_hierarchy.ruby_system.L1Cache_Controller.I.L1_Replacement |           1    100.00%    100.00% |           0      0.00%    100.00% (Unspecified)
board.cache_hierarchy.ruby_system.L1Cache_Controller.I.L1_Replacement::total            1                       (Unspecified)
board.cache_hierarchy.ruby_system.L1Cache_Controller.S.Load |       85329     30.35%     30.35% |      195825     69.65%    100.00% (Unspecified)
board.cache_hierarchy.ruby_system.L1Cache_Controller.S.Load::total       281154                       (Unspecified)
board.cache_hierarchy.ruby_system.L1Cache_Controller.S.Ifetch |  1331589130     99.49%     99.49% |     6875998      0.51%    100.00% (Unspecified)
board.cache_hierarchy.ruby_system.L1Cache_Controller.S.Ifetch::total   1338465128                       (Unspecified)
board.cache_hierarchy.ruby_system.L1Cache_Controller.S.Store |        4330     99.98%     99.98% |           1      0.02%    100.00% (Unspecified)
board.cache_hierarchy.ruby_system.L1Cache_Controller.S.Store::total         4331                       (Unspecified)
board.cache_hierarchy.ruby_system.L1Cache_Controller.S.Inv |           1      0.01%      0.01% |        8586     99.99%    100.00% (Unspecified)
board.cache_hierarchy.ruby_system.L1Cache_Controller.S.Inv::total         8587                       (Unspecified)
board.cache_hierarchy.ruby_system.L1Cache_Controller.S.L1_Replacement |     8836234     92.77%     92.77% |      688906      7.23%    100.00% (Unspecified)
board.cache_hierarchy.ruby_system.L1Cache_Controller.S.L1_Replacement::total      9525140                       (Unspecified)
board.cache_hierarchy.ruby_system.L1Cache_Controller.E.Load |    56579058     99.27%     99.27% |      413292      0.73%    100.00% (Unspecified)
board.cache_hierarchy.ruby_system.L1Cache_Controller.E.Load::total     56992350                       (Unspecified)
board.cache_hierarchy.ruby_system.L1Cache_Controller.E.Store |      677701     87.70%     87.70% |       95061     12.30%    100.00% (Unspecified)
board.cache_hierarchy.ruby_system.L1Cache_Controller.E.Store::total       772762                       (Unspecified)
board.cache_hierarchy.ruby_system.L1Cache_Controller.E.L1_Replacement |     7371655     95.19%     95.19% |      372627      4.81%    100.00% (Unspecified)
board.cache_hierarchy.ruby_system.L1Cache_Controller.E.L1_Replacement::total      7744282                       (Unspecified)
board.cache_hierarchy.ruby_system.L1Cache_Controller.E.Fwd_GETX |           0      0.00%      0.00% |        1084    100.00%    100.00% (Unspecified)
board.cache_hierarchy.ruby_system.L1Cache_Controller.E.Fwd_GETX::total         1084                       (Unspecified)
board.cache_hierarchy.ruby_system.L1Cache_Controller.E.Fwd_GETS |        1074     98.90%     98.90% |          12      1.10%    100.00% (Unspecified)
board.cache_hierarchy.ruby_system.L1Cache_Controller.E.Fwd_GETS::total         1086                       (Unspecified)
board.cache_hierarchy.ruby_system.L1Cache_Controller.M.Load |    32576955     98.30%     98.30% |      564842      1.70%    100.00% (Unspecified)
board.cache_hierarchy.ruby_system.L1Cache_Controller.M.Load::total     33141797                       (Unspecified)
board.cache_hierarchy.ruby_system.L1Cache_Controller.M.Store |    24530373     96.83%     96.83% |      802970      3.17%    100.00% (Unspecified)
board.cache_hierarchy.ruby_system.L1Cache_Controller.M.Store::total     25333343                       (Unspecified)
board.cache_hierarchy.ruby_system.L1Cache_Controller.M.L1_Replacement |     4485037     94.91%     94.91% |      240683      5.09%    100.00% (Unspecified)
board.cache_hierarchy.ruby_system.L1Cache_Controller.M.L1_Replacement::total      4725720                       (Unspecified)
board.cache_hierarchy.ruby_system.L1Cache_Controller.M.Fwd_GETX |           0      0.00%      0.00% |           1    100.00%    100.00% (Unspecified)
board.cache_hierarchy.ruby_system.L1Cache_Controller.M.Fwd_GETX::total            1                       (Unspecified)
board.cache_hierarchy.ruby_system.L1Cache_Controller.M.Fwd_GETS |        8635    100.00%    100.00% |           0      0.00%    100.00% (Unspecified)
board.cache_hierarchy.ruby_system.L1Cache_Controller.M.Fwd_GETS::total         8635                       (Unspecified)
board.cache_hierarchy.ruby_system.L1Cache_Controller.IS.Data_Exclusive |     8050432     94.50%     94.50% |      468784      5.50%    100.00% (Unspecified)
board.cache_hierarchy.ruby_system.L1Cache_Controller.IS.Data_Exclusive::total      8519216                       (Unspecified)
board.cache_hierarchy.ruby_system.L1Cache_Controller.IS.DataS_fromL1 |          12      0.12%      0.12% |        9709     99.88%    100.00% (Unspecified)
board.cache_hierarchy.ruby_system.L1Cache_Controller.IS.DataS_fromL1::total         9721                       (Unspecified)
board.cache_hierarchy.ruby_system.L1Cache_Controller.IS.Data_all_Acks |     8830844     92.77%     92.77% |      687772      7.23%    100.00% (Unspecified)
board.cache_hierarchy.ruby_system.L1Cache_Controller.IS.Data_all_Acks::total      9518616                       (Unspecified)
board.cache_hierarchy.ruby_system.L1Cache_Controller.IM.Data |        5390    100.00%    100.00% |           0      0.00%    100.00% (Unspecified)
board.cache_hierarchy.ruby_system.L1Cache_Controller.IM.Data::total         5390                       (Unspecified)
board.cache_hierarchy.ruby_system.L1Cache_Controller.IM.Data_all_Acks |     3806249     96.32%     96.32% |      145622      3.68%    100.00% (Unspecified)
board.cache_hierarchy.ruby_system.L1Cache_Controller.IM.Data_all_Acks::total      3951871                       (Unspecified)
board.cache_hierarchy.ruby_system.L1Cache_Controller.SM.Ack |        4330     99.98%     99.98% |           1      0.02%    100.00% (Unspecified)
board.cache_hierarchy.ruby_system.L1Cache_Controller.SM.Ack::total         4331                       (Unspecified)
board.cache_hierarchy.ruby_system.L1Cache_Controller.SM.Ack_all |        9720     99.99%     99.99% |           1      0.01%    100.00% (Unspecified)
board.cache_hierarchy.ruby_system.L1Cache_Controller.SM.Ack_all::total         9721                       (Unspecified)
board.cache_hierarchy.ruby_system.L1Cache_Controller.M_I.Load |           0      0.00%      0.00% |           1    100.00%    100.00% (Unspecified)
board.cache_hierarchy.ruby_system.L1Cache_Controller.M_I.Load::total            1                       (Unspecified)
board.cache_hierarchy.ruby_system.L1Cache_Controller.M_I.WB_Ack |    11856692     95.08%     95.08% |      613310      4.92%    100.00% (Unspecified)
board.cache_hierarchy.ruby_system.L1Cache_Controller.M_I.WB_Ack::total     12470002                       (Unspecified)
board.cache_hierarchy.ruby_system.L2Cache_Controller.L1_GET_INSTR |     4773331     52.03%     52.03% |     4401334     47.97%    100.00% (Unspecified)
board.cache_hierarchy.ruby_system.L2Cache_Controller.L1_GET_INSTR::total      9174665                       (Unspecified)
board.cache_hierarchy.ruby_system.L2Cache_Controller.L1_GETS |     4664185     52.53%     52.53% |     4214105     47.47%    100.00% (Unspecified)
board.cache_hierarchy.ruby_system.L2Cache_Controller.L1_GETS::total      8878290                       (Unspecified)
board.cache_hierarchy.ruby_system.L2Cache_Controller.L1_GETX |     1886124     47.66%     47.66% |     2071137     52.34%    100.00% (Unspecified)
board.cache_hierarchy.ruby_system.L2Cache_Controller.L1_GETX::total      3957261                       (Unspecified)
board.cache_hierarchy.ruby_system.L2Cache_Controller.L1_UPGRADE |        8655    100.00%    100.00% |           0      0.00%    100.00% (Unspecified)
board.cache_hierarchy.ruby_system.L2Cache_Controller.L1_UPGRADE::total         8655                       (Unspecified)
board.cache_hierarchy.ruby_system.L2Cache_Controller.L1_PUTX |     6334258     50.80%     50.80% |     6135744     49.20%    100.00% (Unspecified)
board.cache_hierarchy.ruby_system.L2Cache_Controller.L1_PUTX::total     12470002                       (Unspecified)
board.cache_hierarchy.ruby_system.L2Cache_Controller.L2_Replacement |        7967     49.85%     49.85% |        8016     50.15%    100.00% (Unspecified)
board.cache_hierarchy.ruby_system.L2Cache_Controller.L2_Replacement::total        15983                       (Unspecified)
board.cache_hierarchy.ruby_system.L2Cache_Controller.L2_Replacement_clean |      175700     50.01%     50.01% |      175643     49.99%    100.00% (Unspecified)
board.cache_hierarchy.ruby_system.L2Cache_Controller.L2_Replacement_clean::total       351343                       (Unspecified)
board.cache_hierarchy.ruby_system.L2Cache_Controller.Mem_Data |      183841     50.02%     50.02% |      183659     49.98%    100.00% (Unspecified)
board.cache_hierarchy.ruby_system.L2Cache_Controller.Mem_Data::total       367500                       (Unspecified)
board.cache_hierarchy.ruby_system.L2Cache_Controller.Mem_Ack |      183841     50.02%     50.02% |      183659     49.98%    100.00% (Unspecified)
board.cache_hierarchy.ruby_system.L2Cache_Controller.Mem_Ack::total       367500                       (Unspecified)
board.cache_hierarchy.ruby_system.L2Cache_Controller.WB_Data |        7571     87.68%     87.68% |        1064     12.32%    100.00% (Unspecified)
board.cache_hierarchy.ruby_system.L2Cache_Controller.WB_Data::total         8635                       (Unspecified)
board.cache_hierarchy.ruby_system.L2Cache_Controller.WB_Data_clean |        1084     99.82%     99.82% |           2      0.18%    100.00% (Unspecified)
board.cache_hierarchy.ruby_system.L2Cache_Controller.WB_Data_clean::total         1086                       (Unspecified)
board.cache_hierarchy.ruby_system.L2Cache_Controller.Ack |         221     51.64%     51.64% |         207     48.36%    100.00% (Unspecified)
board.cache_hierarchy.ruby_system.L2Cache_Controller.Ack::total          428                       (Unspecified)
board.cache_hierarchy.ruby_system.L2Cache_Controller.Ack_all |        1818     50.81%     50.81% |        1760     49.19%    100.00% (Unspecified)
board.cache_hierarchy.ruby_system.L2Cache_Controller.Ack_all::total         3578                       (Unspecified)
board.cache_hierarchy.ruby_system.L2Cache_Controller.Unblock |        8655     89.03%     89.03% |        1066     10.97%    100.00% (Unspecified)
board.cache_hierarchy.ruby_system.L2Cache_Controller.Unblock::total         9721                       (Unspecified)
board.cache_hierarchy.ruby_system.L2Cache_Controller.Exclusive_Unblock |     6343977     50.83%     50.83% |     6136831     49.17%    100.00% (Unspecified)
board.cache_hierarchy.ruby_system.L2Cache_Controller.Exclusive_Unblock::total     12480808                       (Unspecified)
board.cache_hierarchy.ruby_system.L2Cache_Controller.MEM_Inv |         348    100.00%    100.00% |           0      0.00%    100.00% (Unspecified)
board.cache_hierarchy.ruby_system.L2Cache_Controller.MEM_Inv::total          348                       (Unspecified)
board.cache_hierarchy.ruby_system.L2Cache_Controller.NP.L1_GET_INSTR |         325     50.86%     50.86% |         314     49.14%    100.00% (Unspecified)
board.cache_hierarchy.ruby_system.L2Cache_Controller.NP.L1_GET_INSTR::total          639                       (Unspecified)
board.cache_hierarchy.ruby_system.L2Cache_Controller.NP.L1_GETS |      179136     50.05%     50.05% |      178796     49.95%    100.00% (Unspecified)
board.cache_hierarchy.ruby_system.L2Cache_Controller.NP.L1_GETS::total       357932                       (Unspecified)
board.cache_hierarchy.ruby_system.L2Cache_Controller.NP.L1_GETX |        4380     49.05%     49.05% |        4549     50.95%    100.00% (Unspecified)
board.cache_hierarchy.ruby_system.L2Cache_Controller.NP.L1_GETX::total         8929                       (Unspecified)
board.cache_hierarchy.ruby_system.L2Cache_Controller.SS.L1_GET_INSTR |     4773006     52.03%     52.03% |     4401020     47.97%    100.00% (Unspecified)
board.cache_hierarchy.ruby_system.L2Cache_Controller.SS.L1_GET_INSTR::total      9174026                       (Unspecified)
board.cache_hierarchy.ruby_system.L2Cache_Controller.SS.L1_GETS |      196606     57.16%     57.16% |      147345     42.84%    100.00% (Unspecified)
board.cache_hierarchy.ruby_system.L2Cache_Controller.SS.L1_GETS::total       343951                       (Unspecified)
board.cache_hierarchy.ruby_system.L2Cache_Controller.SS.L1_GETX |        4324     80.22%     80.22% |        1066     19.78%    100.00% (Unspecified)
board.cache_hierarchy.ruby_system.L2Cache_Controller.SS.L1_GETX::total         5390                       (Unspecified)
board.cache_hierarchy.ruby_system.L2Cache_Controller.SS.L1_UPGRADE |        4331    100.00%    100.00% |           0      0.00%    100.00% (Unspecified)
board.cache_hierarchy.ruby_system.L2Cache_Controller.SS.L1_UPGRADE::total         4331                       (Unspecified)
board.cache_hierarchy.ruby_system.L2Cache_Controller.SS.L2_Replacement_clean |        1818     50.81%     50.81% |        1760     49.19%    100.00% (Unspecified)
board.cache_hierarchy.ruby_system.L2Cache_Controller.SS.L2_Replacement_clean::total         3578                       (Unspecified)
board.cache_hierarchy.ruby_system.L2Cache_Controller.M.L1_GETS |     4274386     52.37%     52.37% |     3886898     47.63%    100.00% (Unspecified)
board.cache_hierarchy.ruby_system.L2Cache_Controller.M.L1_GETS::total      8161284                       (Unspecified)
board.cache_hierarchy.ruby_system.L2Cache_Controller.M.L1_GETX |     1876356     47.60%     47.60% |     2065501     52.40%    100.00% (Unspecified)
board.cache_hierarchy.ruby_system.L2Cache_Controller.M.L1_GETX::total      3941857                       (Unspecified)
board.cache_hierarchy.ruby_system.L2Cache_Controller.M.L2_Replacement |        7967     49.85%     49.85% |        8016     50.15%    100.00% (Unspecified)
board.cache_hierarchy.ruby_system.L2Cache_Controller.M.L2_Replacement::total        15983                       (Unspecified)
board.cache_hierarchy.ruby_system.L2Cache_Controller.M.L2_Replacement_clean |      173882     50.00%     50.00% |      173883     50.00%    100.00% (Unspecified)
board.cache_hierarchy.ruby_system.L2Cache_Controller.M.L2_Replacement_clean::total       347765                       (Unspecified)
board.cache_hierarchy.ruby_system.L2Cache_Controller.M.MEM_Inv |         174    100.00%    100.00% |           0      0.00%    100.00% (Unspecified)
board.cache_hierarchy.ruby_system.L2Cache_Controller.M.MEM_Inv::total          174                       (Unspecified)
board.cache_hierarchy.ruby_system.L2Cache_Controller.MT.L1_GETS |        8655     89.03%     89.03% |        1066     10.97%    100.00% (Unspecified)
board.cache_hierarchy.ruby_system.L2Cache_Controller.MT.L1_GETS::total         9721                       (Unspecified)
board.cache_hierarchy.ruby_system.L2Cache_Controller.MT.L1_GETX |        1064     98.06%     98.06% |          21      1.94%    100.00% (Unspecified)
board.cache_hierarchy.ruby_system.L2Cache_Controller.MT.L1_GETX::total         1085                       (Unspecified)
board.cache_hierarchy.ruby_system.L2Cache_Controller.MT.L1_PUTX |     6334258     50.80%     50.80% |     6135744     49.20%    100.00% (Unspecified)
board.cache_hierarchy.ruby_system.L2Cache_Controller.MT.L1_PUTX::total     12470002                       (Unspecified)
board.cache_hierarchy.ruby_system.L2Cache_Controller.M_I.Mem_Ack |      183841     50.02%     50.02% |      183659     49.98%    100.00% (Unspecified)
board.cache_hierarchy.ruby_system.L2Cache_Controller.M_I.Mem_Ack::total       367500                       (Unspecified)
board.cache_hierarchy.ruby_system.L2Cache_Controller.M_I.MEM_Inv |         174    100.00%    100.00% |           0      0.00%    100.00% (Unspecified)
board.cache_hierarchy.ruby_system.L2Cache_Controller.M_I.MEM_Inv::total          174                       (Unspecified)
board.cache_hierarchy.ruby_system.L2Cache_Controller.I_I.Ack |         221     51.64%     51.64% |         207     48.36%    100.00% (Unspecified)
board.cache_hierarchy.ruby_system.L2Cache_Controller.I_I.Ack::total          428                       (Unspecified)
board.cache_hierarchy.ruby_system.L2Cache_Controller.I_I.Ack_all |        1818     50.81%     50.81% |        1760     49.19%    100.00% (Unspecified)
board.cache_hierarchy.ruby_system.L2Cache_Controller.I_I.Ack_all::total         3578                       (Unspecified)
board.cache_hierarchy.ruby_system.L2Cache_Controller.ISS.Mem_Data |      179136     50.05%     50.05% |      178796     49.95%    100.00% (Unspecified)
board.cache_hierarchy.ruby_system.L2Cache_Controller.ISS.Mem_Data::total       357932                       (Unspecified)
board.cache_hierarchy.ruby_system.L2Cache_Controller.IS.Mem_Data |         325     50.86%     50.86% |         314     49.14%    100.00% (Unspecified)
board.cache_hierarchy.ruby_system.L2Cache_Controller.IS.Mem_Data::total          639                       (Unspecified)
board.cache_hierarchy.ruby_system.L2Cache_Controller.IM.Mem_Data |        4380     49.05%     49.05% |        4549     50.95%    100.00% (Unspecified)
board.cache_hierarchy.ruby_system.L2Cache_Controller.IM.Mem_Data::total         8929                       (Unspecified)
board.cache_hierarchy.ruby_system.L2Cache_Controller.SS_MB.L1_GETS |        5400    100.00%    100.00% |           0      0.00%    100.00% (Unspecified)
board.cache_hierarchy.ruby_system.L2Cache_Controller.SS_MB.L1_GETS::total         5400                       (Unspecified)
board.cache_hierarchy.ruby_system.L2Cache_Controller.SS_MB.Exclusive_Unblock |        8655     89.03%     89.03% |        1066     10.97%    100.00% (Unspecified)
board.cache_hierarchy.ruby_system.L2Cache_Controller.SS_MB.Exclusive_Unblock::total         9721                       (Unspecified)
board.cache_hierarchy.ruby_system.L2Cache_Controller.MT_MB.L1_GETS |           2    100.00%    100.00% |           0      0.00%    100.00% (Unspecified)
board.cache_hierarchy.ruby_system.L2Cache_Controller.MT_MB.L1_GETS::total            2                       (Unspecified)
board.cache_hierarchy.ruby_system.L2Cache_Controller.MT_MB.Exclusive_Unblock |     6335322     50.80%     50.80% |     6135765     49.20%    100.00% (Unspecified)
board.cache_hierarchy.ruby_system.L2Cache_Controller.MT_MB.Exclusive_Unblock::total     12471087                       (Unspecified)
board.cache_hierarchy.ruby_system.L2Cache_Controller.MT_IIB.WB_Data |        7571     87.68%     87.68% |        1064     12.32%    100.00% (Unspecified)
board.cache_hierarchy.ruby_system.L2Cache_Controller.MT_IIB.WB_Data::total         8635                       (Unspecified)
board.cache_hierarchy.ruby_system.L2Cache_Controller.MT_IIB.WB_Data_clean |        1084     99.82%     99.82% |           2      0.18%    100.00% (Unspecified)
board.cache_hierarchy.ruby_system.L2Cache_Controller.MT_IIB.WB_Data_clean::total         1086                       (Unspecified)
board.cache_hierarchy.ruby_system.L2Cache_Controller.MT_SB.L1_UPGRADE |        4324    100.00%    100.00% |           0      0.00%    100.00% (Unspecified)
board.cache_hierarchy.ruby_system.L2Cache_Controller.MT_SB.L1_UPGRADE::total         4324                       (Unspecified)
board.cache_hierarchy.ruby_system.L2Cache_Controller.MT_SB.Unblock |        8655     89.03%     89.03% |        1066     10.97%    100.00% (Unspecified)
board.cache_hierarchy.ruby_system.L2Cache_Controller.MT_SB.Unblock::total         9721                       (Unspecified)
board.cache_hierarchy.ruby_system.RequestType.LD.latency_hist_seqr::bucket_size          256                       (Unspecified)
board.cache_hierarchy.ruby_system.RequestType.LD.latency_hist_seqr::max_bucket         2559                       (Unspecified)
board.cache_hierarchy.ruby_system.RequestType.LD.latency_hist_seqr::samples     99288189                       (Unspecified)
board.cache_hierarchy.ruby_system.RequestType.LD.latency_hist_seqr::mean     2.643454                       (Unspecified)
board.cache_hierarchy.ruby_system.RequestType.LD.latency_hist_seqr::gmean     1.272626                       (Unspecified)
board.cache_hierarchy.ruby_system.RequestType.LD.latency_hist_seqr::stdev    11.905975                       (Unspecified)
board.cache_hierarchy.ruby_system.RequestType.LD.latency_hist_seqr |    99279772     99.99%     99.99% |        4263      0.00%    100.00% |         421      0.00%    100.00% |         223      0.00%    100.00% |        3424      0.00%    100.00% |          61      0.00%    100.00% |          22      0.00%    100.00% |           3      0.00%    100.00% |           0      0.00%    100.00% |           0      0.00%    100.00% (Unspecified)
board.cache_hierarchy.ruby_system.RequestType.LD.latency_hist_seqr::total     99288189                       (Unspecified)
board.cache_hierarchy.ruby_system.RequestType.LD.hit_latency_hist_seqr::bucket_size            1                       (Unspecified)
board.cache_hierarchy.ruby_system.RequestType.LD.hit_latency_hist_seqr::max_bucket            9                       (Unspecified)
board.cache_hierarchy.ruby_system.RequestType.LD.hit_latency_hist_seqr::samples     90415301                       (Unspecified)
board.cache_hierarchy.ruby_system.RequestType.LD.hit_latency_hist_seqr::mean            1                       (Unspecified)
board.cache_hierarchy.ruby_system.RequestType.LD.hit_latency_hist_seqr::gmean            1                       (Unspecified)
board.cache_hierarchy.ruby_system.RequestType.LD.hit_latency_hist_seqr |           0      0.00%      0.00% |    90415301    100.00%    100.00% |           0      0.00%    100.00% |           0      0.00%    100.00% |           0      0.00%    100.00% |           0      0.00%    100.00% |           0      0.00%    100.00% |           0      0.00%    100.00% |           0      0.00%    100.00% |           0      0.00%    100.00% (Unspecified)
board.cache_hierarchy.ruby_system.RequestType.LD.hit_latency_hist_seqr::total     90415301                       (Unspecified)
board.cache_hierarchy.ruby_system.RequestType.LD.miss_latency_hist_seqr::bucket_size          256                       (Unspecified)
board.cache_hierarchy.ruby_system.RequestType.LD.miss_latency_hist_seqr::max_bucket         2559                       (Unspecified)
board.cache_hierarchy.ruby_system.RequestType.LD.miss_latency_hist_seqr::samples      8872888                       (Unspecified)
board.cache_hierarchy.ruby_system.RequestType.LD.miss_latency_hist_seqr::mean    19.390353                       (Unspecified)
board.cache_hierarchy.ruby_system.RequestType.LD.miss_latency_hist_seqr::gmean    14.845952                       (Unspecified)
board.cache_hierarchy.ruby_system.RequestType.LD.miss_latency_hist_seqr::stdev    35.752418                       (Unspecified)
board.cache_hierarchy.ruby_system.RequestType.LD.miss_latency_hist_seqr |     8864471     99.91%     99.91% |        4263      0.05%     99.95% |         421      0.00%     99.96% |         223      0.00%     99.96% |        3424      0.04%    100.00% |          61      0.00%    100.00% |          22      0.00%    100.00% |           3      0.00%    100.00% |           0      0.00%    100.00% |           0      0.00%    100.00% (Unspecified)
board.cache_hierarchy.ruby_system.RequestType.LD.miss_latency_hist_seqr::total      8872888                       (Unspecified)
board.cache_hierarchy.ruby_system.RequestType.ST.latency_hist_seqr::bucket_size          128                       (Unspecified)
board.cache_hierarchy.ruby_system.RequestType.ST.latency_hist_seqr::max_bucket         1279                       (Unspecified)
board.cache_hierarchy.ruby_system.RequestType.ST.latency_hist_seqr::samples     28290235                       (Unspecified)
board.cache_hierarchy.ruby_system.RequestType.ST.latency_hist_seqr::mean     2.825535                       (Unspecified)
board.cache_hierarchy.ruby_system.RequestType.ST.latency_hist_seqr::gmean     1.414323                       (Unspecified)
board.cache_hierarchy.ruby_system.RequestType.ST.latency_hist_seqr::stdev     5.816719                       (Unspecified)
board.cache_hierarchy.ruby_system.RequestType.ST.latency_hist_seqr |    28282044     99.97%     99.97% |        7995      0.03%    100.00% |          17      0.00%    100.00% |          28      0.00%    100.00% |          17      0.00%    100.00% |          19      0.00%    100.00% |          18      0.00%    100.00% |          24      0.00%    100.00% |          34      0.00%    100.00% |          39      0.00%    100.00% (Unspecified)
board.cache_hierarchy.ruby_system.RequestType.ST.latency_hist_seqr::total     28290235                       (Unspecified)
board.cache_hierarchy.ruby_system.RequestType.ST.hit_latency_hist_seqr::bucket_size            1                       (Unspecified)
board.cache_hierarchy.ruby_system.RequestType.ST.hit_latency_hist_seqr::max_bucket            9                       (Unspecified)
board.cache_hierarchy.ruby_system.RequestType.ST.hit_latency_hist_seqr::samples     24649261                       (Unspecified)
board.cache_hierarchy.ruby_system.RequestType.ST.hit_latency_hist_seqr::mean            1                       (Unspecified)
board.cache_hierarchy.ruby_system.RequestType.ST.hit_latency_hist_seqr::gmean            1                       (Unspecified)
board.cache_hierarchy.ruby_system.RequestType.ST.hit_latency_hist_seqr |           0      0.00%      0.00% |    24649261    100.00%    100.00% |           0      0.00%    100.00% |           0      0.00%    100.00% |           0      0.00%    100.00% |           0      0.00%    100.00% |           0      0.00%    100.00% |           0      0.00%    100.00% |           0      0.00%    100.00% |           0      0.00%    100.00% (Unspecified)
board.cache_hierarchy.ruby_system.RequestType.ST.hit_latency_hist_seqr::total     24649261                       (Unspecified)
board.cache_hierarchy.ruby_system.RequestType.ST.miss_latency_hist_seqr::bucket_size          128                       (Unspecified)
board.cache_hierarchy.ruby_system.RequestType.ST.miss_latency_hist_seqr::max_bucket         1279                       (Unspecified)
board.cache_hierarchy.ruby_system.RequestType.ST.miss_latency_hist_seqr::samples      3640974                       (Unspecified)
board.cache_hierarchy.ruby_system.RequestType.ST.miss_latency_hist_seqr::mean    15.184341                       (Unspecified)
board.cache_hierarchy.ruby_system.RequestType.ST.miss_latency_hist_seqr::gmean    14.782813                       (Unspecified)
board.cache_hierarchy.ruby_system.RequestType.ST.miss_latency_hist_seqr::stdev     9.358906                       (Unspecified)
board.cache_hierarchy.ruby_system.RequestType.ST.miss_latency_hist_seqr |     3632783     99.78%     99.78% |        7995      0.22%     99.99% |          17      0.00%    100.00% |          28      0.00%    100.00% |          17      0.00%    100.00% |          19      0.00%    100.00% |          18      0.00%    100.00% |          24      0.00%    100.00% |          34      0.00%    100.00% |          39      0.00%    100.00% (Unspecified)
board.cache_hierarchy.ruby_system.RequestType.ST.miss_latency_hist_seqr::total      3640974                       (Unspecified)
board.cache_hierarchy.ruby_system.RequestType.IFETCH.latency_hist_seqr::bucket_size          128                       (Unspecified)
board.cache_hierarchy.ruby_system.RequestType.IFETCH.latency_hist_seqr::max_bucket         1279                       (Unspecified)
board.cache_hierarchy.ruby_system.RequestType.IFETCH.latency_hist_seqr::samples   1347639793                       (Unspecified)
board.cache_hierarchy.ruby_system.RequestType.IFETCH.latency_hist_seqr::mean     1.081780                       (Unspecified)
board.cache_hierarchy.ruby_system.RequestType.IFETCH.latency_hist_seqr::gmean     1.017618                       (Unspecified)
board.cache_hierarchy.ruby_system.RequestType.IFETCH.latency_hist_seqr::stdev     0.994331                       (Unspecified)
board.cache_hierarchy.ruby_system.RequestType.IFETCH.latency_hist_seqr |  1347639154    100.00%    100.00% |         635      0.00%    100.00% |           1      0.00%    100.00% |           0      0.00%    100.00% |           0      0.00%    100.00% |           0      0.00%    100.00% |           0      0.00%    100.00% |           0      0.00%    100.00% |           1      0.00%    100.00% |           2      0.00%    100.00% (Unspecified)
board.cache_hierarchy.ruby_system.RequestType.IFETCH.latency_hist_seqr::total   1347639793                       (Unspecified)
board.cache_hierarchy.ruby_system.RequestType.IFETCH.hit_latency_hist_seqr::bucket_size            1                       (Unspecified)
board.cache_hierarchy.ruby_system.RequestType.IFETCH.hit_latency_hist_seqr::max_bucket            9                       (Unspecified)
board.cache_hierarchy.ruby_system.RequestType.IFETCH.hit_latency_hist_seqr::samples   1338465128                       (Unspecified)
board.cache_hierarchy.ruby_system.RequestType.IFETCH.hit_latency_hist_seqr::mean            1                       (Unspecified)
board.cache_hierarchy.ruby_system.RequestType.IFETCH.hit_latency_hist_seqr::gmean            1                       (Unspecified)
board.cache_hierarchy.ruby_system.RequestType.IFETCH.hit_latency_hist_seqr |           0      0.00%      0.00% |  1338465128    100.00%    100.00% |           0      0.00%    100.00% |           0      0.00%    100.00% |           0      0.00%    100.00% |           0      0.00%    100.00% |           0      0.00%    100.00% |           0      0.00%    100.00% |           0      0.00%    100.00% |           0      0.00%    100.00% (Unspecified)
board.cache_hierarchy.ruby_system.RequestType.IFETCH.hit_latency_hist_seqr::total   1338465128                       (Unspecified)
board.cache_hierarchy.ruby_system.RequestType.IFETCH.miss_latency_hist_seqr::bucket_size          128                       (Unspecified)
board.cache_hierarchy.ruby_system.RequestType.IFETCH.miss_latency_hist_seqr::max_bucket         1279                       (Unspecified)
board.cache_hierarchy.ruby_system.RequestType.IFETCH.miss_latency_hist_seqr::samples      9174665                       (Unspecified)
board.cache_hierarchy.ruby_system.RequestType.IFETCH.miss_latency_hist_seqr::mean    13.012353                       (Unspecified)
board.cache_hierarchy.ruby_system.RequestType.IFETCH.miss_latency_hist_seqr::gmean    13.004156                       (Unspecified)
board.cache_hierarchy.ruby_system.RequestType.IFETCH.miss_latency_hist_seqr::stdev     1.382794                       (Unspecified)
board.cache_hierarchy.ruby_system.RequestType.IFETCH.miss_latency_hist_seqr |     9174026     99.99%     99.99% |         635      0.01%    100.00% |           1      0.00%    100.00% |           0      0.00%    100.00% |           0      0.00%    100.00% |           0      0.00%    100.00% |           0      0.00%    100.00% |           0      0.00%    100.00% |           1      0.00%    100.00% |           2      0.00%    100.00% (Unspecified)
board.cache_hierarchy.ruby_system.RequestType.IFETCH.miss_latency_hist_seqr::total      9174665                       (Unspecified)
board.cache_hierarchy.ruby_system.RequestType.RMW_Read.latency_hist_seqr::bucket_size          128                       (Unspecified)
board.cache_hierarchy.ruby_system.RequestType.RMW_Read.latency_hist_seqr::max_bucket         1279                       (Unspecified)
board.cache_hierarchy.ruby_system.RequestType.RMW_Read.latency_hist_seqr::samples      1527624                       (Unspecified)
board.cache_hierarchy.ruby_system.RequestType.RMW_Read.latency_hist_seqr::mean     3.312312                       (Unspecified)
board.cache_hierarchy.ruby_system.RequestType.RMW_Read.latency_hist_seqr::gmean     1.593795                       (Unspecified)
board.cache_hierarchy.ruby_system.RequestType.RMW_Read.latency_hist_seqr::stdev     6.612588                       (Unspecified)
board.cache_hierarchy.ruby_system.RequestType.RMW_Read.latency_hist_seqr |     1526905     99.95%     99.95% |         706      0.05%    100.00% |           0      0.00%    100.00% |           2      0.00%    100.00% |           0      0.00%    100.00% |           0      0.00%    100.00% |           0      0.00%    100.00% |           0      0.00%    100.00% |           4      0.00%    100.00% |           7      0.00%    100.00% (Unspecified)
board.cache_hierarchy.ruby_system.RequestType.RMW_Read.latency_hist_seqr::total      1527624                       (Unspecified)
board.cache_hierarchy.ruby_system.RequestType.RMW_Read.hit_latency_hist_seqr::bucket_size            1                       (Unspecified)
board.cache_hierarchy.ruby_system.RequestType.RMW_Read.hit_latency_hist_seqr::max_bucket            9                       (Unspecified)
board.cache_hierarchy.ruby_system.RequestType.RMW_Read.hit_latency_hist_seqr::samples      1254388                       (Unspecified)
board.cache_hierarchy.ruby_system.RequestType.RMW_Read.hit_latency_hist_seqr::mean            1                       (Unspecified)
board.cache_hierarchy.ruby_system.RequestType.RMW_Read.hit_latency_hist_seqr::gmean            1                       (Unspecified)
board.cache_hierarchy.ruby_system.RequestType.RMW_Read.hit_latency_hist_seqr |           0      0.00%      0.00% |     1254388    100.00%    100.00% |           0      0.00%    100.00% |           0      0.00%    100.00% |           0      0.00%    100.00% |           0      0.00%    100.00% |           0      0.00%    100.00% |           0      0.00%    100.00% |           0      0.00%    100.00% |           0      0.00%    100.00% (Unspecified)
board.cache_hierarchy.ruby_system.RequestType.RMW_Read.hit_latency_hist_seqr::total      1254388                       (Unspecified)
board.cache_hierarchy.ruby_system.RequestType.RMW_Read.miss_latency_hist_seqr::bucket_size          128                       (Unspecified)
board.cache_hierarchy.ruby_system.RequestType.RMW_Read.miss_latency_hist_seqr::max_bucket         1279                       (Unspecified)
board.cache_hierarchy.ruby_system.RequestType.RMW_Read.miss_latency_hist_seqr::samples       273236                       (Unspecified)
board.cache_hierarchy.ruby_system.RequestType.RMW_Read.miss_latency_hist_seqr::mean    13.927810                       (Unspecified)
board.cache_hierarchy.ruby_system.RequestType.RMW_Read.miss_latency_hist_seqr::gmean    13.544779                       (Unspecified)
board.cache_hierarchy.ruby_system.RequestType.RMW_Read.miss_latency_hist_seqr::stdev    10.355326                       (Unspecified)
board.cache_hierarchy.ruby_system.RequestType.RMW_Read.miss_latency_hist_seqr |      272517     99.74%     99.74% |         706      0.26%    100.00% |           0      0.00%    100.00% |           2      0.00%    100.00% |           0      0.00%    100.00% |           0      0.00%    100.00% |           0      0.00%    100.00% |           0      0.00%    100.00% |           4      0.00%    100.00% |           7      0.00%    100.00% (Unspecified)
board.cache_hierarchy.ruby_system.RequestType.RMW_Read.miss_latency_hist_seqr::total       273236                       (Unspecified)
board.cache_hierarchy.ruby_system.RequestType.Locked_RMW_Read.latency_hist_seqr::bucket_size           64                       (Unspecified)
board.cache_hierarchy.ruby_system.RequestType.Locked_RMW_Read.latency_hist_seqr::max_bucket          639                       (Unspecified)
board.cache_hierarchy.ruby_system.RequestType.Locked_RMW_Read.latency_hist_seqr::samples       124919                       (Unspecified)
board.cache_hierarchy.ruby_system.RequestType.Locked_RMW_Read.latency_hist_seqr::mean     5.942923                       (Unspecified)
board.cache_hierarchy.ruby_system.RequestType.Locked_RMW_Read.latency_hist_seqr::gmean     2.712109                       (Unspecified)
board.cache_hierarchy.ruby_system.RequestType.Locked_RMW_Read.latency_hist_seqr::stdev     6.823703                       (Unspecified)
board.cache_hierarchy.ruby_system.RequestType.Locked_RMW_Read.latency_hist_seqr |      124901     99.99%     99.99% |           0      0.00%     99.99% |          15      0.01%    100.00% |           2      0.00%    100.00% |           0      0.00%    100.00% |           0      0.00%    100.00% |           0      0.00%    100.00% |           1      0.00%    100.00% |           0      0.00%    100.00% |           0      0.00%    100.00% (Unspecified)
board.cache_hierarchy.ruby_system.RequestType.Locked_RMW_Read.latency_hist_seqr::total       124919                       (Unspecified)
board.cache_hierarchy.ruby_system.RequestType.Locked_RMW_Read.hit_latency_hist_seqr::bucket_size            1                       (Unspecified)
board.cache_hierarchy.ruby_system.RequestType.Locked_RMW_Read.hit_latency_hist_seqr::max_bucket            9                       (Unspecified)
board.cache_hierarchy.ruby_system.RequestType.Locked_RMW_Read.hit_latency_hist_seqr::samples        77537                       (Unspecified)
board.cache_hierarchy.ruby_system.RequestType.Locked_RMW_Read.hit_latency_hist_seqr::mean            1                       (Unspecified)
board.cache_hierarchy.ruby_system.RequestType.Locked_RMW_Read.hit_latency_hist_seqr::gmean            1                       (Unspecified)
board.cache_hierarchy.ruby_system.RequestType.Locked_RMW_Read.hit_latency_hist_seqr |           0      0.00%      0.00% |       77537    100.00%    100.00% |           0      0.00%    100.00% |           0      0.00%    100.00% |           0      0.00%    100.00% |           0      0.00%    100.00% |           0      0.00%    100.00% |           0      0.00%    100.00% |           0      0.00%    100.00% |           0      0.00%    100.00% (Unspecified)
board.cache_hierarchy.ruby_system.RequestType.Locked_RMW_Read.hit_latency_hist_seqr::total        77537                       (Unspecified)
board.cache_hierarchy.ruby_system.RequestType.Locked_RMW_Read.miss_latency_hist_seqr::bucket_size           64                       (Unspecified)
board.cache_hierarchy.ruby_system.RequestType.Locked_RMW_Read.miss_latency_hist_seqr::max_bucket          639                       (Unspecified)
board.cache_hierarchy.ruby_system.RequestType.Locked_RMW_Read.miss_latency_hist_seqr::samples        47382                       (Unspecified)
board.cache_hierarchy.ruby_system.RequestType.Locked_RMW_Read.miss_latency_hist_seqr::mean    14.031636                       (Unspecified)
board.cache_hierarchy.ruby_system.RequestType.Locked_RMW_Read.miss_latency_hist_seqr::gmean    13.879722                       (Unspecified)
board.cache_hierarchy.ruby_system.RequestType.Locked_RMW_Read.miss_latency_hist_seqr::stdev     4.165306                       (Unspecified)
board.cache_hierarchy.ruby_system.RequestType.Locked_RMW_Read.miss_latency_hist_seqr |       47364     99.96%     99.96% |           0      0.00%     99.96% |          15      0.03%     99.99% |           2      0.00%    100.00% |           0      0.00%    100.00% |           0      0.00%    100.00% |           0      0.00%    100.00% |           1      0.00%    100.00% |           0      0.00%    100.00% |           0      0.00%    100.00% (Unspecified)
board.cache_hierarchy.ruby_system.RequestType.Locked_RMW_Read.miss_latency_hist_seqr::total        47382                       (Unspecified)
board.cache_hierarchy.ruby_system.RequestType.Locked_RMW_Write.latency_hist_seqr::bucket_size            1                       (Unspecified)
board.cache_hierarchy.ruby_system.RequestType.Locked_RMW_Write.latency_hist_seqr::max_bucket            9                       (Unspecified)
board.cache_hierarchy.ruby_system.RequestType.Locked_RMW_Write.latency_hist_seqr::samples       124919                       (Unspecified)
board.cache_hierarchy.ruby_system.RequestType.Locked_RMW_Write.latency_hist_seqr::mean            1                       (Unspecified)
board.cache_hierarchy.ruby_system.RequestType.Locked_RMW_Write.latency_hist_seqr::gmean            1                       (Unspecified)
board.cache_hierarchy.ruby_system.RequestType.Locked_RMW_Write.latency_hist_seqr |           0      0.00%      0.00% |      124919    100.00%    100.00% |           0      0.00%    100.00% |           0      0.00%    100.00% |           0      0.00%    100.00% |           0      0.00%    100.00% |           0      0.00%    100.00% |           0      0.00%    100.00% |           0      0.00%    100.00% |           0      0.00%    100.00% (Unspecified)
board.cache_hierarchy.ruby_system.RequestType.Locked_RMW_Write.latency_hist_seqr::total       124919                       (Unspecified)
board.cache_hierarchy.ruby_system.RequestType.Locked_RMW_Write.hit_latency_hist_seqr::bucket_size            1                       (Unspecified)
board.cache_hierarchy.ruby_system.RequestType.Locked_RMW_Write.hit_latency_hist_seqr::max_bucket            9                       (Unspecified)
board.cache_hierarchy.ruby_system.RequestType.Locked_RMW_Write.hit_latency_hist_seqr::samples       124919                       (Unspecified)
board.cache_hierarchy.ruby_system.RequestType.Locked_RMW_Write.hit_latency_hist_seqr::mean            1                       (Unspecified)
board.cache_hierarchy.ruby_system.RequestType.Locked_RMW_Write.hit_latency_hist_seqr::gmean            1                       (Unspecified)
board.cache_hierarchy.ruby_system.RequestType.Locked_RMW_Write.hit_latency_hist_seqr |           0      0.00%      0.00% |      124919    100.00%    100.00% |           0      0.00%    100.00% |           0      0.00%    100.00% |           0      0.00%    100.00% |           0      0.00%    100.00% |           0      0.00%    100.00% |           0      0.00%    100.00% |           0      0.00%    100.00% |           0      0.00%    100.00% (Unspecified)
board.cache_hierarchy.ruby_system.RequestType.Locked_RMW_Write.hit_latency_hist_seqr::total       124919                       (Unspecified)
board.cache_hierarchy.ruby_system.directory_controllers0.power_state.pwrStateResidencyTicks::UNDEFINED 32761009348516                       # Cumulative time (in ticks) in various power states (Tick)
board.cache_hierarchy.ruby_system.directory_controllers0.requestToDir.m_msg_count       362713                       # Number of messages passed the buffer (Count)
board.cache_hierarchy.ruby_system.directory_controllers0.requestToDir.m_buf_msgs     0.000112                       # Average number of messages in buffer ((Count/Tick))
board.cache_hierarchy.ruby_system.directory_controllers0.requestToMemory.m_msg_count       370680                       # Number of messages passed the buffer (Count)
board.cache_hierarchy.ruby_system.directory_controllers0.requestToMemory.m_buf_msgs     0.004561                       # Average number of messages in buffer ((Count/Tick))
board.cache_hierarchy.ruby_system.directory_controllers0.requestToMemory.m_stall_time   4809085482                       # Total number of ticks messages were stalled in this buffer (Tick)
board.cache_hierarchy.ruby_system.directory_controllers0.requestToMemory.m_avg_stall_time 12973.684801                       # Average stall ticks per message ((Tick/Count))
board.cache_hierarchy.ruby_system.directory_controllers0.responseFromDir.m_msg_count       546728                       # Number of messages passed the buffer (Count)
board.cache_hierarchy.ruby_system.directory_controllers0.responseFromDir.m_buf_msgs     0.000169                       # Average number of messages in buffer ((Count/Tick))
board.cache_hierarchy.ruby_system.directory_controllers0.responseFromMemory.m_msg_count       370680                       # Number of messages passed the buffer (Count)
board.cache_hierarchy.ruby_system.directory_controllers0.responseFromMemory.m_buf_msgs     0.000181                       # Average number of messages in buffer ((Count/Tick))
board.cache_hierarchy.ruby_system.directory_controllers0.responseToDir.m_msg_count       183841                       # Number of messages passed the buffer (Count)
board.cache_hierarchy.ruby_system.directory_controllers0.responseToDir.m_buf_msgs     0.000057                       # Average number of messages in buffer ((Count/Tick))
board.cache_hierarchy.ruby_system.directory_controllers1.power_state.pwrStateResidencyTicks::UNDEFINED 32761009348516                       # Cumulative time (in ticks) in various power states (Tick)
board.cache_hierarchy.ruby_system.directory_controllers1.requestToDir.m_msg_count       361835                       # Number of messages passed the buffer (Count)
board.cache_hierarchy.ruby_system.directory_controllers1.requestToDir.m_buf_msgs     0.000111                       # Average number of messages in buffer ((Count/Tick))
board.cache_hierarchy.ruby_system.directory_controllers1.requestToMemory.m_msg_count       369851                       # Number of messages passed the buffer (Count)
board.cache_hierarchy.ruby_system.directory_controllers1.requestToMemory.m_buf_msgs     0.004208                       # Average number of messages in buffer ((Count/Tick))
board.cache_hierarchy.ruby_system.directory_controllers1.requestToMemory.m_stall_time   4427338549                       # Total number of ticks messages were stalled in this buffer (Tick)
board.cache_hierarchy.ruby_system.directory_controllers1.requestToMemory.m_avg_stall_time 11970.600455                       # Average stall ticks per message ((Tick/Count))
board.cache_hierarchy.ruby_system.directory_controllers1.responseFromDir.m_msg_count       545494                       # Number of messages passed the buffer (Count)
board.cache_hierarchy.ruby_system.directory_controllers1.responseFromDir.m_buf_msgs     0.000168                       # Average number of messages in buffer ((Count/Tick))
board.cache_hierarchy.ruby_system.directory_controllers1.responseFromMemory.m_msg_count       369851                       # Number of messages passed the buffer (Count)
board.cache_hierarchy.ruby_system.directory_controllers1.responseFromMemory.m_buf_msgs     0.000182                       # Average number of messages in buffer ((Count/Tick))
board.cache_hierarchy.ruby_system.directory_controllers1.responseToDir.m_msg_count       183659                       # Number of messages passed the buffer (Count)
board.cache_hierarchy.ruby_system.directory_controllers1.responseToDir.m_buf_msgs     0.000057                       # Average number of messages in buffer ((Count/Tick))
board.cache_hierarchy.ruby_system.dma_controllers0.dma_sequencer.power_state.pwrStateResidencyTicks::UNDEFINED 32761009348516                       # Cumulative time (in ticks) in various power states (Tick)
board.cache_hierarchy.ruby_system.dma_controllers0.mandatoryQueue.m_msg_count       357048                       # Number of messages passed the buffer (Count)
board.cache_hierarchy.ruby_system.dma_controllers0.mandatoryQueue.m_buf_msgs     0.000112                       # Average number of messages in buffer ((Count/Tick))
board.cache_hierarchy.ruby_system.dma_controllers0.power_state.pwrStateResidencyTicks::UNDEFINED 32761009348516                       # Cumulative time (in ticks) in various power states (Tick)
board.cache_hierarchy.ruby_system.dma_controllers0.requestToDir.m_msg_count       357048                       # Number of messages passed the buffer (Count)
board.cache_hierarchy.ruby_system.dma_controllers0.requestToDir.m_buf_msgs     0.000660                       # Average number of messages in buffer ((Count/Tick))
board.cache_hierarchy.ruby_system.dma_controllers0.responseFromDir.m_msg_count       357048                       # Number of messages passed the buffer (Count)
board.cache_hierarchy.ruby_system.dma_controllers0.responseFromDir.m_buf_msgs     0.000110                       # Average number of messages in buffer ((Count/Tick))
board.cache_hierarchy.ruby_system.dma_controllers1.dma_sequencer.power_state.pwrStateResidencyTicks::UNDEFINED 32761009348516                       # Cumulative time (in ticks) in various power states (Tick)
board.cache_hierarchy.ruby_system.dma_controllers1.power_state.pwrStateResidencyTicks::UNDEFINED 32761009348516                       # Cumulative time (in ticks) in various power states (Tick)
board.cache_hierarchy.ruby_system.l1_controllers0.delayHistogram::samples     32576604                       # delay_histogram (Unspecified)
board.cache_hierarchy.ruby_system.l1_controllers0.delayHistogram::mean     0.000291                       # delay_histogram (Unspecified)
board.cache_hierarchy.ruby_system.l1_controllers0.delayHistogram::stdev     0.036792                       # delay_histogram (Unspecified)
board.cache_hierarchy.ruby_system.l1_controllers0.delayHistogram::0     32574455     99.99%     99.99% # delay_histogram (Unspecified)
board.cache_hierarchy.ruby_system.l1_controllers0.delayHistogram::2            5      0.00%     99.99% # delay_histogram (Unspecified)
board.cache_hierarchy.ruby_system.l1_controllers0.delayHistogram::4         1826      0.01%    100.00% # delay_histogram (Unspecified)
board.cache_hierarchy.ruby_system.l1_controllers0.delayHistogram::6          196      0.00%    100.00% # delay_histogram (Unspecified)
board.cache_hierarchy.ruby_system.l1_controllers0.delayHistogram::8          122      0.00%    100.00% # delay_histogram (Unspecified)
board.cache_hierarchy.ruby_system.l1_controllers0.delayHistogram::total     32576604                       # delay_histogram (Unspecified)
board.cache_hierarchy.ruby_system.l1_controllers0.L1Dcache.m_demand_hits    114449416                       # Number of cache demand hits (Unspecified)
board.cache_hierarchy.ruby_system.l1_controllers0.L1Dcache.m_demand_misses     12115417                       # Number of cache demand misses (Unspecified)
board.cache_hierarchy.ruby_system.l1_controllers0.L1Dcache.m_demand_accesses    126564833                       # Number of cache demand accesses (Unspecified)
board.cache_hierarchy.ruby_system.l1_controllers0.L1Icache.m_demand_hits   1331589130                       # Number of cache demand hits (Unspecified)
board.cache_hierarchy.ruby_system.l1_controllers0.L1Icache.m_demand_misses      8581840                       # Number of cache demand misses (Unspecified)
board.cache_hierarchy.ruby_system.l1_controllers0.L1Icache.m_demand_accesses   1340170970                       # Number of cache demand accesses (Unspecified)
board.cache_hierarchy.ruby_system.l1_controllers0.mandatoryQueue.m_msg_count   1466735803                       # Number of messages passed the buffer (Count)
board.cache_hierarchy.ruby_system.l1_controllers0.mandatoryQueue.m_buf_msgs     0.451849                       # Average number of messages in buffer ((Count/Tick))
board.cache_hierarchy.ruby_system.l1_controllers0.power_state.pwrStateResidencyTicks::UNDEFINED 32761009348516                       # Cumulative time (in ticks) in various power states (Tick)
board.cache_hierarchy.ruby_system.l1_controllers0.prefetcher.RubyPrefetcher.numMissObserved            0                       # Number of misses observed (Unspecified)
board.cache_hierarchy.ruby_system.l1_controllers0.prefetcher.RubyPrefetcher.numAllocatedStreams            0                       # Number of streams allocated for prefetching (Unspecified)
board.cache_hierarchy.ruby_system.l1_controllers0.prefetcher.RubyPrefetcher.numPrefetchRequested            0                       # Number of prefetch requests made (Unspecified)
board.cache_hierarchy.ruby_system.l1_controllers0.prefetcher.RubyPrefetcher.numHits            0                       # Number of prefetched blocks accessed (for the first time) (Unspecified)
board.cache_hierarchy.ruby_system.l1_controllers0.prefetcher.RubyPrefetcher.numPartialHits            0                       # Number of misses observed for a block being prefetched (Unspecified)
board.cache_hierarchy.ruby_system.l1_controllers0.prefetcher.RubyPrefetcher.numPagesCrossed            0                       # Number of prefetches across pages (Unspecified)
board.cache_hierarchy.ruby_system.l1_controllers0.prefetcher.RubyPrefetcher.numMissedPrefetchedBlocks            0                       # Number of misses for blocks that were prefetched, yet missed (Unspecified)
board.cache_hierarchy.ruby_system.l1_controllers0.requestFromL1Cache.m_msg_count     32553949                       # Number of messages passed the buffer (Count)
board.cache_hierarchy.ruby_system.l1_controllers0.requestFromL1Cache.m_buf_msgs     0.020048                       # Average number of messages in buffer ((Count/Tick))
board.cache_hierarchy.ruby_system.l1_controllers0.requestToL1Cache.m_msg_count        12935                       # Number of messages passed the buffer (Count)
board.cache_hierarchy.ruby_system.l1_controllers0.requestToL1Cache.m_buf_msgs     0.000004                       # Average number of messages in buffer ((Count/Tick))
board.cache_hierarchy.ruby_system.l1_controllers0.responseFromL1Cache.m_msg_count        22644                       # Number of messages passed the buffer (Count)
board.cache_hierarchy.ruby_system.l1_controllers0.responseFromL1Cache.m_buf_msgs     0.000014                       # Average number of messages in buffer ((Count/Tick))
board.cache_hierarchy.ruby_system.l1_controllers0.responseToL1Cache.m_msg_count     32563669                       # Number of messages passed the buffer (Count)
board.cache_hierarchy.ruby_system.l1_controllers0.responseToL1Cache.m_buf_msgs     0.010027                       # Average number of messages in buffer ((Count/Tick))
board.cache_hierarchy.ruby_system.l1_controllers0.sequencer.power_state.pwrStateResidencyTicks::UNDEFINED 32761009348516                       # Cumulative time (in ticks) in various power states (Tick)
board.cache_hierarchy.ruby_system.l1_controllers0.unblockFromL1Cache.m_msg_count     11866413                       # Number of messages passed the buffer (Count)
board.cache_hierarchy.ruby_system.l1_controllers0.unblockFromL1Cache.m_buf_msgs     0.003654                       # Average number of messages in buffer ((Count/Tick))
board.cache_hierarchy.ruby_system.l1_controllers1.delayHistogram::samples      1936797                       # delay_histogram (Unspecified)
board.cache_hierarchy.ruby_system.l1_controllers1.delayHistogram::mean     0.003235                       # delay_histogram (Unspecified)
board.cache_hierarchy.ruby_system.l1_controllers1.delayHistogram::stdev     0.141158                       # delay_histogram (Unspecified)
board.cache_hierarchy.ruby_system.l1_controllers1.delayHistogram::0-1      1935571     99.94%     99.94% # delay_histogram (Unspecified)
board.cache_hierarchy.ruby_system.l1_controllers1.delayHistogram::2-3          310      0.02%     99.95% # delay_histogram (Unspecified)
board.cache_hierarchy.ruby_system.l1_controllers1.delayHistogram::4-5          286      0.01%     99.97% # delay_histogram (Unspecified)
board.cache_hierarchy.ruby_system.l1_controllers1.delayHistogram::6-7          270      0.01%     99.98% # delay_histogram (Unspecified)
board.cache_hierarchy.ruby_system.l1_controllers1.delayHistogram::8-9          359      0.02%    100.00% # delay_histogram (Unspecified)
board.cache_hierarchy.ruby_system.l1_controllers1.delayHistogram::10-11            1      0.00%    100.00% # delay_histogram (Unspecified)
board.cache_hierarchy.ruby_system.l1_controllers1.delayHistogram::total      1936797                       # delay_histogram (Unspecified)
board.cache_hierarchy.ruby_system.l1_controllers1.L1Dcache.m_demand_hits      2071990                       # Number of cache demand hits (Unspecified)
board.cache_hierarchy.ruby_system.l1_controllers1.L1Dcache.m_demand_misses       719063                       # Number of cache demand misses (Unspecified)
[...]
board.processor.switch1.core.commitStats0.committedInstType::IntDiv        32540      0.26%     77.67% # Class of committed instruction. (Count)
board.processor.switch1.core.commitStats0.committedInstType::FloatAdd           77      0.00%     77.67% # Class of committed instruction. (Count)
board.processor.switch1.core.commitStats0.committedInstType::FloatCmp            0      0.00%     77.67% # Class of committed instruction. (Count)
board.processor.switch1.core.commitStats0.committedInstType::FloatCvt          192      0.00%     77.67% # Class of committed instruction. (Count)
board.processor.switch1.core.commitStats0.committedInstType::FloatMult            0      0.00%     77.67% # Class of committed instruction. (Count)
board.processor.switch1.core.commitStats0.committedInstType::FloatMultAcc            0      0.00%     77.67% # Class of committed instruction. (Count)
board.processor.switch1.core.commitStats0.committedInstType::FloatDiv            0      0.00%     77.67% # Class of committed instruction. (Count)
board.processor.switch1.core.commitStats0.committedInstType::FloatMisc            0      0.00%     77.67% # Class of committed instruction. (Count)
board.processor.switch1.core.commitStats0.committedInstType::FloatSqrt            0      0.00%     77.67% # Class of committed instruction. (Count)
board.processor.switch1.core.commitStats0.committedInstType::SimdAdd            0      0.00%     77.67% # Class of committed instruction. (Count)
board.processor.switch1.core.commitStats0.committedInstType::SimdAddAcc            0      0.00%     77.67% # Class of committed instruction. (Count)
board.processor.switch1.core.commitStats0.committedInstType::SimdAlu          220      0.00%     77.67% # Class of committed instruction. (Count)
board.processor.switch1.core.commitStats0.committedInstType::SimdCmp          132      0.00%     77.67% # Class of committed instruction. (Count)
board.processor.switch1.core.commitStats0.committedInstType::SimdCvt          396      0.00%     77.67% # Class of committed instruction. (Count)
board.processor.switch1.core.commitStats0.committedInstType::SimdMisc          682      0.01%     77.68% # Class of committed instruction. (Count)
board.processor.switch1.core.commitStats0.committedInstType::SimdMult            0      0.00%     77.68% # Class of committed instruction. (Count)
board.processor.switch1.core.commitStats0.committedInstType::SimdMultAcc            0      0.00%     77.68% # Class of committed instruction. (Count)
board.processor.switch1.core.commitStats0.committedInstType::SimdMatMultAcc            0      0.00%     77.68% # Class of committed instruction. (Count)
board.processor.switch1.core.commitStats0.committedInstType::SimdShift            0      0.00%     77.68% # Class of committed instruction. (Count)
board.processor.switch1.core.commitStats0.committedInstType::SimdShiftAcc            0      0.00%     77.68% # Class of committed instruction. (Count)
board.processor.switch1.core.commitStats0.committedInstType::SimdDiv            0      0.00%     77.68% # Class of committed instruction. (Count)
board.processor.switch1.core.commitStats0.committedInstType::SimdSqrt            0      0.00%     77.68% # Class of committed instruction. (Count)
board.processor.switch1.core.commitStats0.committedInstType::SimdFloatAdd           22      0.00%     77.68% # Class of committed instruction. (Count)
board.processor.switch1.core.commitStats0.committedInstType::SimdFloatAlu            0      0.00%     77.68% # Class of committed instruction. (Count)
board.processor.switch1.core.commitStats0.committedInstType::SimdFloatCmp            0      0.00%     77.68% # Class of committed instruction. (Count)
board.processor.switch1.core.commitStats0.committedInstType::SimdFloatCvt           99      0.00%     77.68% # Class of committed instruction. (Count)
board.processor.switch1.core.commitStats0.committedInstType::SimdFloatDiv            0      0.00%     77.68% # Class of committed instruction. (Count)
board.processor.switch1.core.commitStats0.committedInstType::SimdFloatMisc            0      0.00%     77.68% # Class of committed instruction. (Count)
board.processor.switch1.core.commitStats0.committedInstType::SimdFloatMult           22      0.00%     77.68% # Class of committed instruction. (Count)
board.processor.switch1.core.commitStats0.committedInstType::SimdFloatMultAcc            0      0.00%     77.68% # Class of committed instruction. (Count)
board.processor.switch1.core.commitStats0.committedInstType::SimdFloatMatMultAcc            0      0.00%     77.68% # Class of committed instruction. (Count)
board.processor.switch1.core.commitStats0.committedInstType::SimdFloatSqrt            0      0.00%     77.68% # Class of committed instruction. (Count)
board.processor.switch1.core.commitStats0.committedInstType::SimdReduceAdd            0      0.00%     77.68% # Class of committed instruction. (Count)
board.processor.switch1.core.commitStats0.committedInstType::SimdReduceAlu            0      0.00%     77.68% # Class of committed instruction. (Count)
board.processor.switch1.core.commitStats0.committedInstType::SimdReduceCmp            0      0.00%     77.68% # Class of committed instruction. (Count)
board.processor.switch1.core.commitStats0.committedInstType::SimdFloatReduceAdd            0      0.00%     77.68% # Class of committed instruction. (Count)
board.processor.switch1.core.commitStats0.committedInstType::SimdFloatReduceCmp            0      0.00%     77.68% # Class of committed instruction. (Count)
board.processor.switch1.core.commitStats0.committedInstType::SimdAes            0      0.00%     77.68% # Class of committed instruction. (Count)
board.processor.switch1.core.commitStats0.committedInstType::SimdAesMix            0      0.00%     77.68% # Class of committed instruction. (Count)
board.processor.switch1.core.commitStats0.committedInstType::SimdSha1Hash            0      0.00%     77.68% # Class of committed instruction. (Count)
board.processor.switch1.core.commitStats0.committedInstType::SimdSha1Hash2            0      0.00%     77.68% # Class of committed instruction. (Count)
board.processor.switch1.core.commitStats0.committedInstType::SimdSha256Hash            0      0.00%     77.68% # Class of committed instruction. (Count)
board.processor.switch1.core.commitStats0.committedInstType::SimdSha256Hash2            0      0.00%     77.68% # Class of committed instruction. (Count)
board.processor.switch1.core.commitStats0.committedInstType::SimdShaSigma2            0      0.00%     77.68% # Class of committed instruction. (Count)
board.processor.switch1.core.commitStats0.committedInstType::SimdShaSigma3            0      0.00%     77.68% # Class of committed instruction. (Count)
board.processor.switch1.core.commitStats0.committedInstType::SimdPredAlu            0      0.00%     77.68% # Class of committed instruction. (Count)
board.processor.switch1.core.commitStats0.committedInstType::Matrix            0      0.00%     77.68% # Class of committed instruction. (Count)
board.processor.switch1.core.commitStats0.committedInstType::MatrixMov            0      0.00%     77.68% # Class of committed instruction. (Count)
board.processor.switch1.core.commitStats0.committedInstType::MatrixOP            0      0.00%     77.68% # Class of committed instruction. (Count)
board.processor.switch1.core.commitStats0.committedInstType::MemRead      1807879     14.63%     92.31% # Class of committed instruction. (Count)
board.processor.switch1.core.commitStats0.committedInstType::MemWrite       944584      7.64%     99.95% # Class of committed instruction. (Count)
board.processor.switch1.core.commitStats0.committedInstType::FloatMemRead         3212      0.03%     99.97% # Class of committed instruction. (Count)
board.processor.switch1.core.commitStats0.committedInstType::FloatMemWrite         3233      0.03%    100.00% # Class of committed instruction. (Count)
board.processor.switch1.core.commitStats0.committedInstType::IprAccess            0      0.00%    100.00% # Class of committed instruction. (Count)
board.processor.switch1.core.commitStats0.committedInstType::InstPrefetch            0      0.00%    100.00% # Class of committed instruction. (Count)
board.processor.switch1.core.commitStats0.committedInstType::SimdUnitStrideLoad            0      0.00%    100.00% # Class of committed instruction. (Count)
board.processor.switch1.core.commitStats0.committedInstType::SimdUnitStrideStore            0      0.00%    100.00% # Class of committed instruction. (Count)
board.processor.switch1.core.commitStats0.committedInstType::SimdUnitStrideMaskLoad            0      0.00%    100.00% # Class of committed instruction. (Count)
board.processor.switch1.core.commitStats0.committedInstType::SimdUnitStrideMaskStore            0      0.00%    100.00% # Class of committed instruction. (Count)
board.processor.switch1.core.commitStats0.committedInstType::SimdStridedLoad            0      0.00%    100.00% # Class of committed instruction. (Count)
board.processor.switch1.core.commitStats0.committedInstType::SimdStridedStore            0      0.00%    100.00% # Class of committed instruction. (Count)
board.processor.switch1.core.commitStats0.committedInstType::SimdIndexedLoad            0      0.00%    100.00% # Class of committed instruction. (Count)
board.processor.switch1.core.commitStats0.committedInstType::SimdIndexedStore            0      0.00%    100.00% # Class of committed instruction. (Count)
board.processor.switch1.core.commitStats0.committedInstType::SimdWholeRegisterLoad            0      0.00%    100.00% # Class of committed instruction. (Count)
board.processor.switch1.core.commitStats0.committedInstType::SimdWholeRegisterStore            0      0.00%    100.00% # Class of committed instruction. (Count)
board.processor.switch1.core.commitStats0.committedInstType::SimdUnitStrideFaultOnlyFirstLoad            0      0.00%    100.00% # Class of committed instruction. (Count)
board.processor.switch1.core.commitStats0.committedInstType::SimdUnitStrideSegmentedLoad            0      0.00%    100.00% # Class of committed instruction. (Count)
board.processor.switch1.core.commitStats0.committedInstType::SimdUnitStrideSegmentedStore            0      0.00%    100.00% # Class of committed instruction. (Count)
board.processor.switch1.core.commitStats0.committedInstType::SimdExt            0      0.00%    100.00% # Class of committed instruction. (Count)
board.processor.switch1.core.commitStats0.committedInstType::SimdFloatExt            0      0.00%    100.00% # Class of committed instruction. (Count)
board.processor.switch1.core.commitStats0.committedInstType::SimdConfig            0      0.00%    100.00% # Class of committed instruction. (Count)
board.processor.switch1.core.commitStats0.committedInstType::total     12361543                       # Class of committed instruction. (Count)
board.processor.switch1.core.commitStats0.committedControl::IsControl      1459823                       # Class of control type instructions committed (Count)
board.processor.switch1.core.commitStats0.committedControl::IsDirectControl      1266846                       # Class of control type instructions committed (Count)
board.processor.switch1.core.commitStats0.committedControl::IsIndirectControl       189080                       # Class of control type instructions committed (Count)
board.processor.switch1.core.commitStats0.committedControl::IsCondControl       856410                       # Class of control type instructions committed (Count)
board.processor.switch1.core.commitStats0.committedControl::IsUncondControl       602158                       # Class of control type instructions committed (Count)
board.processor.switch1.core.commitStats0.committedControl::IsCall       185034                       # Class of control type instructions committed (Count)
board.processor.switch1.core.commitStats0.committedControl::IsReturn       173130                       # Class of control type instructions committed (Count)
board.processor.switch1.core.exec_context.thread_0.numMatAluAccesses            0                       # Number of matrix alu accesses (Count)
board.processor.switch1.core.exec_context.thread_0.numCallsReturns       358164                       # Number of times a function call or return occured (Count)
board.processor.switch1.core.exec_context.thread_0.numMatInsts            0                       # Number of matrix instructions (Count)
board.processor.switch1.core.exec_context.thread_0.numIdleCycles 3208409938.679829                       # Number of idle cycles (Cycle)
board.processor.switch1.core.exec_context.thread_0.numBusyCycles 37614804.320171                       # Number of busy cycles (Cycle)
board.processor.switch1.core.exec_context.thread_0.notIdleFraction     0.011588                       # Percentage of non-idle cycles (Ratio)
board.processor.switch1.core.exec_context.thread_0.idleFraction     0.988412                       # Percentage of idle cycles (Ratio)
board.processor.switch1.core.executeStats0.numInsts            0                       # Number of executed instructions (Count)
board.processor.switch1.core.executeStats0.numNop            0                       # Number of nop insts executed (Count)
board.processor.switch1.core.executeStats0.numBranches            0                       # Number of branches executed (Count)
board.processor.switch1.core.executeStats0.numLoadInsts            0                       # Number of load instructions executed (Count)
board.processor.switch1.core.executeStats0.numStoreInsts      2758908                       # Number of stores executed (Count)
board.processor.switch1.core.executeStats0.instRate            0                       # Inst execution rate ((Count/Cycle))
board.processor.switch1.core.executeStats0.numFpAluAccesses         8342                       # Number of float alu accesses (Count)
board.processor.switch1.core.executeStats0.numFpRegReads         6835                       # Number of times the floating registers were read (Count)
board.processor.switch1.core.executeStats0.numFpRegWrites         4455                       # Number of times the floating registers were written (Count)
board.processor.switch1.core.executeStats0.numIntAluAccesses     11976597                       # Number of integer alu accesses (Count)
board.processor.switch1.core.executeStats0.numIntRegReads     13396307                       # Number of times the integer registers were read (Count)
board.processor.switch1.core.executeStats0.numIntRegWrites      8856530                       # Number of times the integer registers were written (Count)
board.processor.switch1.core.executeStats0.numMemRefs      2758908                       # Number of memory refs (Count)
board.processor.switch1.core.executeStats0.numMiscRegReads      5778207                       # Number of times the Misc registers were read (Count)
board.processor.switch1.core.executeStats0.numMiscRegWrites        49251                       # Number of times the Misc registers were written (Count)
board.processor.switch1.core.executeStats0.numVecAluAccesses            0                       # Number of vector alu accesses (Count)
board.processor.switch1.core.executeStats0.numDiscardedOps            0                       # Number of ops (including micro ops) which were discarded before commit (Count)
board.processor.switch1.core.fetchStats0.numInsts      5818355                       # Number of instructions fetched (thread level) (Count)
board.processor.switch1.core.fetchStats0.numOps     12361543                       # Number of ops (including micro ops) fetched (thread level) (Count)
board.processor.switch1.core.fetchStats0.fetchRate     0.001792                       # Number of inst fetches per cycle ((Count/Cycle))
board.processor.switch1.core.fetchStats0.numBranches      1459823                       # Number of branches fetched (Count)
board.processor.switch1.core.fetchStats0.branchRate     0.000450                       # Number of branch fetches per cycle (Ratio)
board.processor.switch1.core.fetchStats0.numFetchSuspends            0                       # Number of times Execute suspended instruction fetching (Count)
board.processor.switch1.core.mmu.dtb.rdAccesses      1816458                       # TLB accesses on read requests (Count)
board.processor.switch1.core.mmu.dtb.wrAccesses       948013                       # TLB accesses on write requests (Count)
board.processor.switch1.core.mmu.dtb.rdMisses         6041                       # TLB misses on read requests (Count)
board.processor.switch1.core.mmu.dtb.wrMisses          534                       # TLB misses on write requests (Count)
board.processor.switch1.core.mmu.dtb.walker.power_state.pwrStateResidencyTicks::UNDEFINED 32761009348516                       # Cumulative time (in ticks) in various power states (Tick)
board.processor.switch1.core.mmu.itb.rdAccesses            0                       # TLB accesses on read requests (Count)
board.processor.switch1.core.mmu.itb.wrAccesses      7471030                       # TLB accesses on write requests (Count)
board.processor.switch1.core.mmu.itb.rdMisses            0                       # TLB misses on read requests (Count)
board.processor.switch1.core.mmu.itb.wrMisses         2207                       # TLB misses on write requests (Count)
board.processor.switch1.core.mmu.itb.walker.power_state.pwrStateResidencyTicks::UNDEFINED 32761009348516                       # Cumulative time (in ticks) in various power states (Tick)
board.processor.switch1.core.power_state.numTransitions         2500                       # Number of power state transitions (Count)
board.processor.switch1.core.power_state.ticksClkGated::samples         1251                       # Distribution of time spent in the clock gated state (Tick)
board.processor.switch1.core.power_state.ticksClkGated::mean 854643420.416467                       # Distribution of time spent in the clock gated state (Tick)
board.processor.switch1.core.power_state.ticksClkGated::stdev 267484097.008375                       # Distribution of time spent in the clock gated state (Tick)
board.processor.switch1.core.power_state.ticksClkGated::1000-5e+10         1251    100.00%    100.00% # Distribution of time spent in the clock gated state (Tick)
board.processor.switch1.core.power_state.ticksClkGated::min_value      3185479                       # Distribution of time spent in the clock gated state (Tick)
board.processor.switch1.core.power_state.ticksClkGated::max_value   1007861797                       # Distribution of time spent in the clock gated state (Tick)
board.processor.switch1.core.power_state.ticksClkGated::total         1251                       # Distribution of time spent in the clock gated state (Tick)
board.processor.switch1.core.power_state.pwrStateResidencyTicks::ON  12532051649                       # Cumulative time (in ticks) in various power states (Tick)
board.processor.switch1.core.power_state.pwrStateResidencyTicks::CLK_GATED 1069158918941                       # Cumulative time (in ticks) in various power states (Tick)
board.processor.switch1.core.thread_0.numInsts            0                       # Number of Instructions committed (Count)
board.processor.switch1.core.thread_0.numOps            0                       # Number of Ops committed (Count)
board.processor.switch1.core.thread_0.numMemRefs            0                       # Number of Memory References (Count)
board.workload.inst.arm                             0                       # number of arm instructions executed (Count)
board.workload.inst.quiesce                         0                       # number of quiesce instructions executed (Count)

---------- End Simulation Statistics   ----------
