Global frequency set at 1000000000000 ticks per second
      0: board.pc.south_bridge.cmos.rtc: Real-time clock set to Sun Jan  1 00:00:00 2012
gem5 Simulator System.  https://www.gem5.org
gem5 is copyrighted software; use the --copyright option for details.

gem5 version 24.1.0.2
gem5 compiled Apr 29 2025 01:30:14
gem5 started Apr 29 2025 09:12:25
gem5 executing on scc-yg1, pid 283388
command line: build/X86/gem5.opt --outdir=../results/x264_arc_2MB_proj configs/example/gem5_library/x86-spec-cpu2017-benchmarks-2MB.py --image ../disk-image/spec-2017/spec-2017-image/spec-2017 --partition 1 --benchmark 525.x264_r --size test

info: Standard input is not a terminal, disabling listeners.
info: Using default config
CPUS:
[<gem5.components.processors.simple_core.SimpleCore object at 0x15275f988f50>, <gem5.components.processors.simple_core.SimpleCore object at 0x15275f988fb0>]
Running the simulation
Using KVM cpu
Done booting Linux
Reset stats at the start of ROI
(5 billion instructions)...
switching cpus
Coming from max inst
Total number: 5000516134
(1 billion instructions)...
Coming again from the max inst
Total number: 6001085623
Done with the simulation

Performance statistics:
roi simulated ticks: 33416362410111
Ran a total of 52.900190868988 simulated seconds
Total wallclock time: 119245.89s, 1987.43 min
