Global frequency set at 1000000000000 ticks per second
      0: board.pc.south_bridge.cmos.rtc: Real-time clock set to Sun Jan  1 00:00:00 2012
gem5 Simulator System.  https://www.gem5.org
gem5 is copyrighted software; use the --copyright option for details.

gem5 version 24.1.0.2
gem5 compiled Apr 29 2025 01:30:14
gem5 started Apr 29 2025 09:44:32
gem5 executing on scc-pd3, pid 103259
command line: build/X86/gem5.opt --outdir=../results/xalancbmk2_arc_4MB_proj configs/example/gem5_library/x86-4MB-spec-cpu2017-benchmarks.py --image ../disk-image/spec-2017/spec-2017-image/spec-2017 --partition 1 --benchmark 523.xalancbmk_r --size test

info: Standard input is not a terminal, disabling listeners.
info: Using default config
CPUS:
[<gem5.components.processors.simple_core.SimpleCore object at 0x14aa51dfcef0>, <gem5.components.processors.simple_core.SimpleCore object at 0x14aa51dfcf50>]
Running the simulation
Using KVM cpu
Done booting Linux 4MB
Reset stats at the start of ROI
(10 million instructions)...
switching cpus
Coming from max inst
Total number: 11046792
(1 billion instructions)...
Coming again from the max inst
Total number: 1011976410
Done with the simulation

Performance statistics:
roi simulated ticks: 32493334806
Ran a total of 66.28410082639 simulated seconds
Total wallclock time: 24382.51s, 406.38 min
